
These predictions were generated by HydroDyn on 19-Oct-2018 at 10:15:15.

    Time            Wave1Elev
   (sec)                  (m)
    0.0000           4.2194E-01
    0.0250           3.9664E-01
    0.0500           3.7133E-01
    0.0750           3.4603E-01
    0.1000           3.2072E-01

This output file was closed on 19-Oct-2018 at 10:15:16.

